resultados/_temp_alt5_1p00/LineSummary.csv
line,maxCurrentA,normAmps,maxLoadingPct,meanLoadingPct,overloadHours
rbt_1607347,93.04254284975751,124.95,74.4638198077291,25.709987018667206,0
sbt_7584,93.04255298116678,163.8,56.80253539753771,19.612107076417317,0
sbt_22840,93.04254834116514,163.8,56.80253256481388,19.61210699961853,0
rbt_630758,31.600924428848913,76.65,41.227559594062505,17.1349241188849,0
rbt_637576,24.915068046262714,61.95,40.21802751616257,14.45874924445261,0
rbt_606147,25.623475010447073,76.65,33.42919114213577,12.22929497272971,0
rbt_632607,40.87359777068286,124.95,32.711963001746994,15.396898523485477,0
rbt_637918,17.930615721480113,61.95,28.94368962305103,11.127443205485081,0
rbt_1130761,25.380454453767946,90.3,28.10681556341965,13.225968759333625,0
rbt_1607350,22.1300525612864,90.3,24.507256435533115,8.725361816628881,0
rbt_605836,21.54662794659745,90.3,23.861160516719217,11.23704526454762,0
rbt_637360,14.723616467209629,61.95,23.766935378869455,11.166134900981605,0
rbt_606126,13.628601593583536,61.95,21.999356890368905,7.756458450639069,0
rbt_1633671,13.465529093535414,61.95,21.736124444770645,9.737433437485576,0
rbt_3405844,18.9923048370882,90.3,21.032452754250496,7.212182909200947,0
rbt_626476,12.72716448645556,61.95,20.54425260121963,9.664933135279059,0
rbt_606143,14.945298248152685,76.65,19.498105998894566,6.840651587546965,0
rbt_3435739,13.54058304838947,76.65,17.665470382765125,7.931935896826151,0
rbt_635862,10.802206287306872,61.95,17.436975443594626,5.951868042151815,0
rbt_605816,10.292975934506446,61.95,16.614973259897408,6.139933545129708,0
rbt_1627323,12.526229844132883,76.65,16.342113299586277,7.687737372986902,0
sbt_34378,20.565406858412373,128.1,16.054181778620123,7.87639445718505,0
sbt_34379,20.501197603038385,128.1,16.00405745748508,7.7633265745361095,0
rbt_637397,9.767053149757974,61.95,15.766026069020134,7.410041348587698,0
sbt_24791,25.623496357506525,163.8,15.643160169417902,5.7226835503758515,0
sbt_3174,25.623487462996323,163.8,15.643154739313994,5.722685165494604,0
rbt_609688,11.268129112801384,76.65,14.700755528768926,5.271887115568043,0
smt_19119,21.153661571639798,163.8,12.9143233038094,7.808654804175467,0
smt_29422,21.153164798680884,163.8,12.914020023614704,7.808826389021707,0
smt_17184,21.15256571401503,163.8,12.913654282060458,7.808246744383669,0
rbt_606139,9.383603280904355,76.65,12.24214387593523,4.34305843736346,0
rbt_623004,7.3324638573741066,61.95,11.83609985048282,4.5140770965108254,0
rbt_1638954,7.1515193170077405,61.95,11.544018267970525,5.425911551209538,0
rbt_1607265,10.051239326898779,90.3,11.1309405613497,5.237818457333884,0
sbt_11363,18.218607029582707,163.8,11.122470714030957,4.075305812782645,0
sbt_9361,21.546627985731547,216.3,9.961455379441308,4.691193619932034,0
rbt_635543,5.871650972029422,61.95,9.478048380999873,3.6785697259018666,0
rbt_606121,5.803876590724522,61.95,9.368646635552095,4.401877498291124,0
rbt_1605991,5.551415039126326,61.95,8.961121935635715,4.212753419921271,0
rbt_1607280,5.506527415359538,61.95,8.888664108732103,4.177244750068502,0
sbt_34393,11.080749812479398,128.1,8.650077917626385,5.686660275204159,0
rbt_606114,7.529381780439086,90.3,8.338185803365544,3.919137247474491,0
rbt_627337,7.329786225398934,90.3,8.117149751272352,3.8167095168171046,0
rbt_1621994,7.1886845986086865,90.3,7.960891028359564,3.740977277860994,0
rbt_626678,7.0258477596745,90.3,7.780562303072536,3.658835806540054,0
rbt_606150,4.779806445281072,61.95,7.715587482293902,3.624622797550964,0
rbt_1607272,6.8824162787766285,90.3,7.621723453794717,3.585794713544731,0
rbt_623007,4.701296458873182,61.95,7.5888562693675246,3.565568519739879,0
sbt_22748,16.281875921036224,216.3,7.527450726322803,3.541554181477394,0
sbt_7427,16.28186765729719,216.3,7.527446905823944,3.5415502449186884,0
sbt_34383,9.632097740192128,128.1,7.519201982975901,4.428799483764369,0
sbt_34392,9.632094580817656,128.1,7.519199516641417,4.713375233109999,0
sbt_34384,9.619664390617313,128.1,7.509496011410861,3.627000267445664,0
rbt_1630759,5.691965275546867,76.65,7.425916863074843,3.4927086404046843,0
rbt_606122,4.595983253724644,61.95,7.418859166625737,3.4869379468937933,0
rbt_1229546,6.672109050838203,90.3,7.388825083984721,3.4745406012290387,0
smt_34713,21.140434780810804,286.65,7.374999051390478,4.459296548885111,0
smt_34700,21.140292651040316,286.65,7.374949468355248,4.4592668148241925,0
smt_34701,21.1399559834145,286.65,7.374832019331763,4.4591964053694,0
smt_34715,21.139668096563447,286.65,7.374731587847008,4.459136222926168,0
smt_34702,21.139382966500666,286.65,7.374632118088494,4.459076639612139,0
smt_34703,21.138992419218425,286.65,7.374495872743216,4.458995064399247,0
smt_34704,21.138522945743862,286.65,7.374332093404452,4.458897060130912,0
smt_34716,21.138229538445685,286.65,7.374229736070361,4.4588358416635625,0
smt_34705,21.137934551674412,286.65,7.374126827725244,4.458774317959612,0
smt_34717,21.137583064872395,286.65,7.374004208921122,4.458701042218453,0
smt_34706,21.137227203778945,286.65,7.373880064112662,4.458626889841024,0
smt_34707,21.13680822840404,286.65,7.373733901414282,4.458539631552096,0
smt_34708,21.13641788845888,286.65,7.373597728400099,4.458458381327012,0
smt_34709,21.135914186621275,286.65,7.373422008240459,4.458353597737239,0
smt_34718,21.135633603496895,286.65,7.37332412471547,4.458295259720743,0
smt_34710,21.13535922560676,286.65,7.373228405932935,4.458238233224947,0
smt_34719,21.135072267158062,286.65,7.373128298328297,4.458178614630368,0
smt_34711,21.13478624635018,286.65,7.373028517826681,4.458119213828108,0
smt_34720,21.134460144906264,286.65,7.372914754894912,4.4580515170796415,0
smt_34712,21.13415931377767,286.65,7.372809807701961,4.457989092797929,0
smt_34721,21.133943459649675,286.65,7.372734505372293,4.457944318350571,0
smt_34714,21.13393458984244,286.65,7.372731411073588,4.4579424776245355,0
rbt_1638606,4.550983078889766,61.95,7.346219659224803,3.453830228486964,0
rbt_605905,6.5111818368826615,90.3,7.210611115041707,3.389450747171391,0
rbt_1607283,6.447280521771026,90.3,7.139845539059829,3.358474636200642,0
smt_31417,22.6002870213712,327.6,6.89874451201807,4.194971022696747,0
smt_31416,22.600242606928287,327.6,6.898730954495813,4.1949628541717665,0
smt_31411,22.600225682195646,327.6,6.898725788216009,4.1949597413501545,0
smt_31412,22.600206529342675,327.6,6.898719941801793,4.194956218970326,0
smt_31413,22.600092962436133,327.6,6.898685275468905,4.19493533466883,0
smt_31414,22.600007619685027,327.6,6.898659224568078,4.194919642554209,0
smt_31415,22.59979137433786,327.6,6.898593215609846,4.1948798881110445,0
smt_4387,22.59943577355501,327.6,6.898484668362335,4.194814536920344,0
smt_4863,22.599025491833338,327.6,6.898359429741556,4.194739171093719,0
smt_4693,22.598681307043872,327.6,6.898254367229509,4.19467597525355,0
smt_4591,22.5983667800924,327.6,6.898158357781563,4.194618247602734,0
smt_17964,22.598130014869707,327.6,6.898086085125063,4.185382534542425,0
smt_4627,22.598033007875273,327.6,6.898056473710399,4.1945570114687944,0
smt_4527,22.597766048086488,327.6,6.897974984153383,4.1945080507612404,0
smt_6826,22.59770168310253,327.6,6.897955336722383,4.185303298792488,0
smt_23134,22.597332084592097,327.6,6.897842516664254,4.194428494763983,0
smt_7012,22.59720727912843,327.6,6.897804419758373,4.185211890555219,0
smt_18545,22.59694301345844,327.6,6.897723752581941,4.1943572037293295,0
smt_22791,22.596764272193713,327.6,6.897669191756322,4.185130030439171,0
smt_10381,22.596530829620328,327.6,6.897597933339537,4.194281713917005,0
smt_18806,22.59632261304736,327.6,6.897534375167082,4.194243593967992,0
smt_24122,22.59625484989254,327.6,6.897513690443387,4.194231190254794,0
smt_7020,22.5962471613529,327.6,6.8975113435143145,4.185034531629068,0
smt_6842,22.595849289347527,327.6,6.897389892963226,4.184961093492324,0
smt_6830,22.595245741948045,327.6,6.8972056599353,4.184849758639268,0
smt_29390,22.59489705142884,327.6,6.897099222047876,4.184583782079627,0
smt_31407,22.59451990095054,327.6,6.896984096749249,4.184715970430605,0
smt_17776,22.594312396494775,327.6,6.896920755950786,4.184474673738877,0
smt_31408,22.594075419288856,327.6,6.896848418586342,4.193485621800308,0
smt_10747,22.593717497978698,327.6,6.896739162997161,4.18436373040987,0
smt_18202,22.59320092482927,327.6,6.896581478885613,4.184267456843058,0
smt_17794,22.59272159990087,327.6,6.896435164804905,4.184178177381374,0
smt_29420,22.592425445378584,327.6,6.896344763546576,4.184123040521987,0
smt_22739,22.592252377849857,327.6,6.896291934630602,4.184090828355861,0
smt_17795,22.59168175814068,327.6,6.896117752790196,4.183984668315036,0
smt_29389,22.591045216840243,327.6,6.895923448363932,4.183866328030262,0
smt_19163,22.590496766868817,327.6,6.89575603384274,4.183764435991142,0
smt_17961,22.59014723615713,327.6,6.895649339486303,4.18369953388446,0
smt_29388,22.589744135092193,327.6,6.895526292763184,4.183624717799043,0
smt_17962,22.58924873365733,327.6,6.895375071323971,4.18353281935267,0
rbt_1107340,6.173418476608179,90.3,6.836565311858449,3.2168163158815712,0
rbt_605822,6.172879158627297,90.3,6.835968060495345,3.2166657572775925,0
rbt_1626486,6.169066389287062,90.3,6.83174572457039,3.2102475367474557,0
rbt_1607287,6.166414113493648,90.3,6.828808542074914,3.2117941071565372,0
rbt_606132,4.12300863087297,61.95,6.655381163636756,3.1270078697976644,0
rbt_623433,5.971989955446332,90.3,6.613499396950534,3.1113304693074135,0
rbt_626698,5.930048426446856,90.3,6.567052520982123,3.0863967230643112,0
rbt_1607252,4.9972310748601405,76.65,6.519544781291768,3.0657130400702908,0
smt_6447,21.20507040385418,327.6,6.472854213630702,3.9162066858467615,0
smt_6627,21.20470853270058,327.6,6.472743752350604,3.916142062724688,0
smt_24630,21.20413165642335,327.6,6.472567660690888,3.9160391103923846,0
smt_24629,21.20377572922311,327.6,6.472459013804367,3.915975630538444,0
smt_24628,21.20330122103614,327.6,6.4723141700354505,3.9158910500997934,0
smt_24627,21.202948950612218,327.6,6.472206639381019,3.9158282941598412,0
smt_6957,21.202619427998744,327.6,6.472106052502669,3.915769618264326,0
smt_6431,21.20220935343781,327.6,6.471980877117768,3.9156966363323225,0
smt_24626,21.201868108230013,327.6,6.471876711913922,3.9156359356321677,0
smt_12228,21.20149710025285,327.6,6.4717634616156445,3.915569973208537,0
smt_6510,21.15994527976257,327.6,6.45907975572728,3.9056312616011106,0
smt_19223,21.159444052159806,327.6,6.458926755848536,3.9055408319906877,0
smt_22843,21.159017446030305,327.6,6.458796534197283,3.9054639140091525,0
smt_6737,21.158645371418498,327.6,6.4586829583084535,3.905396864731349,0
smt_24665,21.158160548816827,327.6,6.458534966061302,3.905309548964152,0
smt_24635,21.157659716688755,327.6,6.458382086901329,3.9052194106626072,0
smt_24637,21.157141525788415,327.6,6.458223908970822,3.9051262131858153,0
smt_24636,21.156634816578443,327.6,6.4580692358298055,3.90503514466594,0
smt_19174,21.156173503047043,327.6,6.457928419733529,3.9049522899119142,0
smt_6686,21.1556293310163,327.6,6.457762311055036,3.9048546206491346,0
smt_19173,21.154714339485242,327.6,6.457483009610879,3.904690560346388,0
smt_19172,21.154405180205465,327.6,6.457388638646357,3.904635173956128,0
smt_6544,21.15406784779018,327.6,6.45728566782362,3.904574767169148,0
smt_6535,21.153569271778018,327.6,6.457133477343717,3.904485537570506,0
smt_24511,21.153170414585652,327.6,6.457011726063996,3.904235920707436,0
smt_29446,21.152552506360877,327.6,6.4568231093897674,3.904120914901524,0
smt_24634,21.15247948362633,327.6,6.456800819177756,3.9042907120359476,0
smt_32671,21.15214501681482,327.6,6.456698723081447,3.9040451236940394,0
smt_24633,21.152090632215366,327.6,6.456682122165862,3.9042212658719406,0
smt_6389,21.151695238015076,327.6,6.4565614279655295,3.9039615140732464,0
smt_24510,21.15168142528286,327.6,6.456557211624804,3.903958947061263,0
smt_24632,21.151672358823358,327.6,6.456554444085273,3.9041466068111323,0
smt_1873,21.151260712220108,327.6,6.456428788833976,3.9040731727638556,0
smt_24509,21.151203257016,327.6,6.456411250615385,3.9038701161023917,0
smt_24631,21.15089187611982,327.6,6.456316201501777,3.9040074112658085,0
smt_24508,21.150784138402162,327.6,6.456283314530574,3.903792301090325,0
smt_6527,21.150508707616815,327.6,6.456199239199272,3.903939129930119,0
smt_6426,21.150406331084824,327.6,6.4561679887316314,3.9037221930054087,0
smt_6420,21.150021161608812,327.6,6.456050415631505,3.903650754718908,0
smt_6140,21.149604972009055,327.6,6.455923373629137,3.9035736039948126,0
smt_6653,21.14920801957727,327.6,6.455802203778164,3.9035000589101205,0
smt_6650,21.148816910993585,327.6,6.45568281776361,3.9034276343476773,0
smt_29445,21.148433279012995,327.6,6.455565713984431,3.9033566307400576,0
smt_24507,21.148038646667043,327.6,6.4554452523403665,3.903283628825975,0
smt_24506,21.14764537888127,327.6,6.455325207228714,3.9032109173642557,0
smt_24505,21.147239572423157,327.6,6.455201334683503,3.9031359274029604,0
smt_24459,21.14689139484214,327.6,6.4550950533706155,3.9030716190393324,0
smt_24458,21.146472035229603,327.6,6.45496704372088,3.9029942028883777,0
smt_24457,21.146050076139133,327.6,6.4548382405797105,3.90291635045676,0
smt_24456,21.1456620907821,327.6,6.454719807931044,3.902844804826515,0
smt_24455,21.14526380751184,327.6,6.45459823184122,3.902771398711361,0
smt_24454,21.14488172208482,327.6,6.45448160014799,3.902701014594825,0
smt_19165,21.14445985960103,327.6,6.454352826496041,3.9026233447628855,0
smt_17113,21.144018793124125,327.6,6.45421819081933,3.902542186043163,0
smt_6993,21.143051212595488,327.6,6.453922836567609,3.90236431326903,0
smt_24453,21.14246416848692,327.6,6.453743641174273,3.902256507621725,0
smt_24452,21.142009829658676,327.6,6.453604954108265,3.9021731303047305,0
smt_24451,21.141611654755728,327.6,6.453483411097596,3.9021001015109804,0
smt_24450,21.141235549226902,327.6,6.453368604770116,3.9020311562262164,0
smt_6394,21.140824107225544,327.6,6.453243011973608,3.901955773109395,0
smt_24668,21.13392433578636,327.6,6.4511368546356405,3.9006978073676346,0
smt_29393,21.133763390326628,327.6,6.451087725984929,3.900668603257481,0
smt_19218,21.132410840028488,327.6,6.450674859593556,3.9004234303067933,0
smt_6502,21.13194023089687,327.6,6.450531206012474,3.9003382299403917,0
smt_24667,21.131694307529873,327.6,6.450456137829631,3.9002937290163593,0
smt_6683,21.131033129572558,327.6,6.450254313056336,3.900174159762266,0
smt_19220,21.130496681617235,327.6,6.450090562154223,3.900077226178048,0
smt_22844,21.130123623321982,327.6,6.44997668599572,3.900009858133028,0
smt_6687,21.129713719374188,327.6,6.449851562690532,3.89993587591784,0
smt_24666,21.129406428154002,327.6,6.44975776195177,3.899880441115783,0
rbt_637356,3.90548212156859,61.95,6.304248783807248,2.963280709439946,0
rbt_631391,5.621643195898199,90.3,6.2255184893667765,4.714741091298587,0
sbt_28279,13.465541298083444,216.3,6.225400507666872,2.7888768916881816,0
sbt_20214,13.465533847581709,216.3,6.225397063144571,2.788876950057141,0
rbt_605855,4.635436966153319,76.65,6.04753681168078,2.8443666368210327,0
rbt_1607255,5.413547952280745,90.3,5.995069714596617,2.8180098942765386,0
rbt_636933,4.507152296833549,76.65,5.880172598608675,2.7665987467383153,0
rbt_605910,3.540022825438419,61.95,5.714322559222629,2.684350951758858,0
rbt_627343,5.125883358135635,90.3,5.676504272575454,2.66731806084052,0
rbt_1607304,3.4434570645608398,61.95,5.558445624795545,2.6105912776997817,0
rbt_1607305,4.865762443019353,90.3,5.3884412436537685,2.5331927657280784,0
rbt_1607285,3.3044890724398823,61.95,5.334122796513127,2.5047229515809555,0
rbt_606103,4.0160747359647235,76.65,5.2394973724262535,2.462790797351149,0
rbt_3405846,4.003171935290167,76.65,5.222663972981301,2.455754162449524,0
rbt_606109,3.18805730882479,61.95,5.146178061056965,2.4176562471747585,0
rbt_605825,4.64620435652415,90.3,5.145298290724418,2.41929093938591,0
sbt_4580,8.35818648389032,163.8,5.102677951092991,2.400743480718989,0
rbt_1631852,4.598909534117268,90.3,5.092923072112146,2.393745561303256,0
rbt_605993,4.5721789589893085,90.3,5.063321106300452,2.3794984398381787,0
rbt_621999,4.538837017207915,90.3,5.026397582733018,2.3625399595911127,0
rbt_630753,4.536385795524236,90.3,5.023683051521856,2.3623360803021924,0
sbt_6049,8.19853527373651,163.8,5.005210789826929,2.3550945108528247,0
rbt_607384,3.00266907208476,61.95,4.846923441621889,2.2772987239560547,0
rbt_1607278,3.7087687607130344,76.65,4.838576334915896,2.2734672772739777,0
rbt_1628760,4.355541167071414,90.3,4.823412145151068,2.266275678786199,0
rbt_3433894,4.331572690156177,90.3,4.796868981346818,2.2551309114006592,0
rbt_1607357,3.653968311654431,76.65,4.767081946059271,2.240431896294511,0
sbt_25907,10.293000415134443,216.3,4.758668707875378,1.7585243323529882,0
sbt_21361,10.292993685523118,216.3,4.758665596635746,1.758524432499238,0
sbt_20771,10.292988311622826,216.3,4.758663112169591,1.7585265842920574,0
smt_6110,15.412621748663003,327.6,4.7047074934868744,2.722361275170744,0
smt_6802,14.936773702022673,327.6,4.559454731997152,2.7282805742614182,0
smt_24514,14.936237588677155,327.6,4.559291083234784,2.728162200424419,0
smt_24513,14.935680863446374,327.6,4.559121142688148,2.72803936501137,0
smt_19166,14.935244043537201,327.6,4.5589878032775335,2.7279430493369126,0
smt_6414,14.934817670762497,327.6,4.558857652857904,2.727849091436313,0
smt_18852,14.934386173492802,327.6,4.558725938184615,2.72775405885166,0
smt_6403,14.933907426345005,327.6,4.5585798004716125,2.727648684279932,0
smt_1832,14.933491267091902,327.6,4.558452767732571,2.7275571406208474,0
smt_1831,14.93308585394749,327.6,4.558329015246486,2.7274680099871413,0
smt_1829,14.932289980289386,327.6,4.55808607456941,2.7272931774400644,0
smt_1828,14.931713919961666,327.6,4.55791023197853,2.727166749075799,0
smt_24515,14.839138166837373,327.6,4.529651455078563,2.680327337457723,0
smt_6552,14.838762431360156,327.6,4.529536761709449,2.6802433819847002,0
smt_6549,14.838266010304153,327.6,4.529385229030571,2.680132525408231,0
smt_23959,14.837832560403026,327.6,4.529252918315942,2.680035791838183,0
smt_22744,14.837312603014777,327.6,4.529094201164462,2.6799198270186984,0
smt_19175,14.836880185987733,327.6,4.5289622057349606,2.6798234483642225,0
smt_19177,14.836387847649162,327.6,4.5288119193068255,2.6797137829991065,0
smt_19176,14.835870449570187,327.6,4.528653983385283,2.6795986146692226,0
smt_19164,14.835645181678565,327.6,4.528585220292602,2.6795484973462727,0
smt_32311,14.835257578393895,327.6,4.528466904271641,2.679462299784181,0
smt_39119,14.83479269147668,327.6,4.528324997398254,2.6793589758118066,0
smt_32312,14.83477086797354,327.6,4.528318335767259,2.679354126652546,0
smt_32310,14.834753069616447,327.6,4.528312902813323,2.6793501721474313,0
smt_32309,14.834322920611037,327.6,4.528181599698118,2.6792546321188744,0
smt_32314,14.834126267474726,327.6,4.528121571268231,2.679210972656491,0
smt_32313,14.834111336297402,327.6,4.528117013521795,2.6792076576164803,0
smt_6350,14.761182222596632,327.6,4.505855379303001,2.665608618034771,0
smt_24517,14.759068797481715,327.6,4.505210255641549,2.665366129528035,0
smt_24520,14.7584212005481,327.6,4.505012576479883,2.6652213568379906,0
smt_19116,14.758115432004269,327.6,4.504919240538544,2.6651530453149346,0
rbt_605806,3.991259654655711,90.3,4.419999617558927,2.077098417329547,0
rbt_622714,3.9312240079673613,90.3,4.353514958989326,2.046983984113545,0
rbt_1607258,3.286538892778718,76.65,4.287721973618679,2.0162315052460875,0
rbt_627328,3.8380885232461046,90.3,4.25037488731573,2.0002424566986265,0
smt_6066,6.961426636146923,163.8,4.2499552113229075,2.3988375652769656,0
smt_6062,6.96104833668559,163.8,4.2497242592708115,2.398813402209544,0
smt_6719,6.960630595293435,163.8,4.24946922789587,2.3987883568294635,0
smt_6176,6.960159632599894,163.8,4.24918170488394,2.3987508680305076,0
smt_6144,6.959719753433707,163.8,4.248913158384436,2.3987225505623995,0
smt_6227,6.959253410190537,163.8,4.2486284555497775,2.398688316997901,0
smt_19063,6.95880282428007,163.8,4.248353372576355,2.398657104904699,0
smt_6092,6.958356216608573,163.8,4.248080718320252,2.398620401400884,0
smt_29474,6.95796929511823,163.8,4.247844502514182,2.398600265846906,0
smt_29473,6.957536156157168,163.8,4.247580070914022,2.398572380251892,0
smt_19115,6.95710283335724,163.8,4.247315527080122,2.3985341425083244,0
smt_24512,6.956761179548387,163.8,4.247106947221237,2.3984741807362844,0
sbt_5830,6.894647908816311,163.8,4.209186757519115,1.9802954487234885,0
smt_37840,6.866798309615797,163.8,4.192184560205004,2.3753022004572673,0
smt_6474,6.866489272005448,163.8,4.1919958925552185,2.375284276096878,0
smt_19061,6.866106447534244,163.8,4.1917621779818335,2.375252329639372,0
smt_29476,6.865732439457537,163.8,4.191533845822672,2.3752309830925475,0
smt_6594,6.865275755180433,163.8,4.191255039792694,2.3751955255937474,0
smt_29475,6.86481528775255,163.8,4.1909739241468555,2.3751533019576674,0
smt_19011,6.864418379376841,163.8,4.190731611341173,2.375129358593617,0
smt_19014,6.8639634063467945,163.8,4.190453850028568,2.375094951473803,0
rbt_621168,3.1930809933559847,76.65,4.165793859564233,1.957983509576503,0
rbt_1107330,3.7473534728718962,90.3,4.149893103955589,1.9528773019066914,0
rbt_605815,3.7471148658880677,90.3,4.149628865878259,1.9513718989958742,0
rbt_621171,2.563328580851772,61.95,4.137737822198178,1.9439549784820829,0
rbt_3422597,3.7303892430643035,90.3,4.13110658146656,1.942823066816805,0
rbt_606127,2.544358421629368,61.95,4.107116096254025,1.9296013896747495,0
rbt_635966,2.530246513056661,61.95,4.0843365828194695,1.9191198927610642,0
rbt_1124041,3.680963488540237,90.3,4.076371526622633,1.9170436189531743,0
rbt_605921,3.032862425534704,76.65,3.956767678453625,1.8598809128126177,0
sbt_14007,6.447280234783759,163.8,3.936068519404004,1.8514666045370605,0
sbt_4118,11.268136643072356,286.65,3.930973885599985,1.4096993509421631,0
rbt_627336,3.520008509727323,90.3,3.898126810329261,1.8315862852735627,0
rbt_1627321,3.5067143740989697,90.3,3.883404622479479,1.8253125534717312,0
rbt_1607355,3.4923456378697892,90.3,3.867492400741738,1.8177773998568734,0
rbt_605902,2.3953520119136216,61.95,3.8665892040575,1.8169457515984762,0
sbt_35173,4.865762042500259,128.1,3.798409088602856,1.7856929388511293,0
rbt_1607358,2.908043454292729,76.65,3.793924924060964,1.7833692196170026,0
sbt_21952,8.198534379530532,216.3,3.79035338859479,1.783469135064311,0
sbt_20840,6.172879123392516,163.8,3.7685464733776044,1.7732900367513131,0
sbt_6273,6.166413805940522,163.8,3.7645993931260815,1.7706042490563583,0
rbt_3405838,3.3506542337588776,90.3,3.7105805467983144,1.7459330449188224,0
rbt_622273,2.1322016203884906,57.75,3.692124017988728,1.7378238997227264,0
rbt_1107341,2.2844392451863396,61.95,3.6875532609948984,1.734624262756048,0
rbt_638617,2.2752756474673075,61.95,3.6727613357018685,1.7276196345264694,0
rbt_605828,3.3103100871410986,90.3,3.665902643567108,1.725043807676139,0
rbt_1607292,3.246506523925197,90.3,3.5952453199614585,1.690336809807951,0
smt_6536,10.304193464353862,286.65,3.594695086116819,2.1426595296095146,0
smt_6703,10.303631624904177,286.65,3.594499084215656,2.1425416313143493,0
smt_6514,10.30308068696352,286.65,3.594306885387588,2.142426210330135,0
smt_6984,10.30299659064924,286.65,3.594277547758326,2.1424086087687377,0
smt_5854,10.302140975802189,286.65,3.5939790601089094,2.1422297758664346,0
smt_5855,10.301499948294078,286.65,3.59375543286031,2.1420960920770047,0
smt_5657,10.300974560562274,286.65,3.5935721474140156,2.1419867152359573,0
smt_21743,10.30042067865805,286.65,3.593378921562201,2.1418715927579304,0
smt_22741,10.299853160635145,286.65,3.593180938648228,2.141753834736478,0
smt_6098,10.299402292814046,286.65,3.5930236500310646,2.1416604248129523,0
smt_19120,10.298879452571612,286.65,3.5928412532955214,2.141552274983995,0
smt_22740,10.29836197679438,286.65,3.5926607279938536,2.1414454126253193,0
smt_22738,10.285441137777358,286.65,3.588153196503527,2.13631925569189,0
smt_6754,10.284969040300648,286.65,3.5879885017619566,2.1362202894855162,0
smt_6567,10.284489136973813,286.65,3.5878210838910913,2.1361198283023906,0
smt_6746,10.284012083219483,286.65,3.5876546601149433,2.136020105055771,0
smt_6812,10.283543268122273,286.65,3.5874911104560523,2.1359222416236476,0
rbt_1635060,2.2030246280628627,61.95,3.556133378632546,1.6720790530215355,0
rbt_1626490,3.2110369335160915,90.3,3.5559655963633348,2.6931459122857966,0
sbt_37156,5.803876376865032,163.8,3.543270071346173,1.6648125118063293,0
rbt_605867,3.1931358368762894,90.3,3.5361415690767326,1.6627307243352965,0
sbt_4615,5.727701187325346,163.8,3.4967650716271956,1.6460736138202396,0
sbt_3373,5.727699968190873,163.8,3.496764327344855,1.646072812098106,0
sbt_20793,5.72769885061497,163.8,3.496763645064084,1.6460720826998845,0
sbt_4010,5.727697120767425,163.8,3.496762588991102,1.6460709636710806,0
sbt_28804,5.727695552539308,163.8,3.496761631586879,1.6460699591713936,0
rbt_605812,3.1187955222690946,90.3,3.4538156392791746,1.6253087866385982,0
rbt_632613,3.11557203532648,90.3,3.4502458862973207,1.6227013548682223,0
rbt_622713,3.099284201254136,90.3,3.432208417778667,1.612785382448222,0
rbt_606120,2.1161393282447762,61.95,3.4158826928890655,1.6045334614285052,0
sbt_37537,7.332495051680812,216.3,3.3899653498293167,1.2928680626829434,0
sbt_37545,7.332486388659296,216.3,3.3899613447338397,1.2928686570594217,0
sbt_37546,7.332469635033646,216.3,3.389953599183378,1.292867416420372,0
sbt_26269,7.329785857139281,216.3,3.3887128327042446,1.5933834098335866,0
sbt_37539,7.3254149526494965,216.3,3.386692072422328,1.7536287756210498,0
sbt_37538,7.325409413961845,216.3,3.3866895117715416,1.7536293013622777,0
rbt_1132019,3.018220191146303,90.3,3.3424365350457395,1.5715051807232188,0
rbt_605863,3.0036044252138536,90.3,3.326250747745131,1.5643367110384192,0
rbt_634166,2.523779965040273,76.65,3.292602694116468,1.5472255154899617,0
rbt_1138614,2.0264991826634997,61.95,3.2711851213292973,1.5380055798249392,0
rbt_605803,2.9168163320922544,90.3,3.2301399026492295,1.5183814855052118,0
rbt_605834,2.896740640242105,90.3,3.2079076857609135,1.5101044519074571,0
smt_29484,5.240688453520305,163.8,3.199443500317647,1.585481686646836,0
smt_22951,5.24067493489105,163.8,3.199435247186233,1.5854733975578423,0
smt_19381,5.23933548787301,163.8,3.198617513963986,1.584653411784411,0
smt_18804,5.238638233062889,163.8,3.198191839476733,1.5842275685990599,0
smt_19380,5.23783925746326,163.8,3.1977040643853845,1.5837404502291126,0
rbt_605904,1.980735826917875,61.95,3.197313683483252,1.5013494171241462,0
smt_5349,5.23719916229184,163.8,3.1973132858924536,1.5833508556626772,0
smt_18803,5.236549066866593,163.8,3.1969164022384575,1.5829557759364772,0
smt_13454,5.23588530529604,163.8,3.196511175394407,1.5825530188666885,0
smt_19377,5.235096345731558,163.8,3.1960295150986306,1.5820751230251242,0
smt_29411,5.234104562424186,163.8,3.195424030783996,1.5814756543972894,0
smt_8954,5.233495257173415,163.8,3.195052049556419,1.5811080813554153,0
smt_5584,5.232785038987394,163.8,3.194618460920265,1.5806803185948433,0
rbt_605810,2.4436585402790487,76.65,3.188073764225764,1.4983552144464183,0
rbt_605864,2.871831025196011,90.3,3.1803222870387717,1.4957162383626725,0
smt_37837,6.867318052368425,216.3,3.174904323794926,1.7988064865246283,0
smt_37841,6.866994788194425,216.3,3.1747548720270107,1.7987763413940734,0
rbt_609682,2.4211708022678287,76.65,3.1587355541654643,1.4858999184840955,0
rbt_622703,1.9426968127064455,61.95,3.1359109163945846,2.3754303652414266,0
rbt_605835,2.8309613864669427,90.3,3.1350624434849865,1.4757974825821736,0
smt_7052,5.133655823351294,163.8,3.134100014255979,1.717644598442593,0
sbt_14006,5.124339234007209,163.8,3.128412230773632,1.4710593268254462,0
sbt_27416,6.672108922318269,216.3,3.0846550727315156,1.4505363064352481,0
sbt_15213,6.672108876232057,216.3,3.084655051424899,1.450536296490208,0
rbt_606128,2.351346155779526,76.65,3.0676401249569807,1.4416139849079563,0
rbt_1607257,2.745160096825556,90.3,3.040044404015012,1.4289558412598027,0
rbt_607385,2.7400083538327302,90.3,3.0343392622732344,1.4270979034645184,0
rbt_3405845,2.731148425557174,90.3,3.024527603053349,1.4236819744145783,0
rbt_633056,2.7273968154184027,90.3,3.020372996033669,1.419979664616432,0
rbt_606141,2.7247034322229684,90.3,3.0173902903908845,1.4202940743482566,0
rbt_623015,2.7171837118910767,90.3,3.009062803866087,2.2790902367248838,0
sbt_34389,3.8380872608800534,128.1,2.996164918719792,2.3052306054734735,0
rbt_605982,2.662281074740029,90.3,2.948262541240342,1.3869840127704187,0
rbt_1606000,2.6607912543049514,90.3,2.946612684723091,1.385279573615908,0
smt_37855,6.366521509549353,216.3,2.9433756401060345,1.5563520905559327,0
smt_37854,6.366188680388241,216.3,2.9432217662451414,1.556377152494707,0
smt_37853,6.365882461310021,216.3,2.9430801947804075,1.556407637280776,0
smt_37852,6.365568207137487,216.3,2.942934908524035,1.556433401221918,0
smt_37851,6.365272271508499,216.3,2.942798091312297,1.5564643741880957,0
smt_37850,6.3649645128050425,216.3,2.942655808046714,1.5564938912239763,0
smt_37849,6.3646580685787475,216.3,2.9425141324913304,1.5565263189894167,0
smt_37848,6.364340739183693,216.3,2.9423674244954663,1.556557443772193,0
smt_37847,6.36402466538444,216.3,2.9422212969877206,1.556567920639412,0
smt_37846,6.363802550535634,216.3,2.942118608661874,1.5566085617003813,0
smt_37845,6.363499423526462,216.3,2.9419784667251325,1.5566439346311955,0
smt_38000,6.363176382290549,216.3,2.9418291180261433,1.556665914268262,0
smt_38002,6.362902851077509,216.3,2.941702658843046,1.55663330014756,0
smt_38001,6.362895762041289,216.3,2.94169938143379,1.5566351452438647,0
smt_37843,6.362884994230734,216.3,2.941694403250455,1.5567017197864612,0
smt_37842,6.362587160150883,216.3,2.9415567083452996,1.5566999858244825,0
smt_37838,6.362433258421792,216.3,2.9414855563669864,1.5567376000137003,0
rbt_1629639,2.648599009916245,90.3,2.9331107529526523,1.3780487036532734,0
sbt_3952,4.790652194819331,163.8,2.924696089633291,1.3762628206674716,0
sbt_4120,4.790650761705328,163.8,2.9246952147163174,1.3762618968144966,0
sbt_20855,4.790649366469454,163.8,2.9246943629239643,1.3762610036744594,0
sbt_20854,4.7906480429544285,163.8,2.9246935549172335,1.3762601619776416,0
rbt_635963,1.8101966219678178,61.95,2.9220284454686323,1.3725345788986234,0
smt_25186,4.734780597454753,163.8,2.8905864453325716,1.5895253747772935,0
rbt_626481,2.6038791770133414,90.3,2.8835871284754613,1.3553841046245454,0
rbt_1607306,2.1959194878589474,76.65,2.8648656071219145,1.3469795876934272,0
rbt_605901,2.5782911207557273,90.3,2.855250410582201,1.341616199410641,0
rbt_605820,2.1854052635354058,76.65,2.8511484194851997,1.340909553434993,0
rbt_3405847,2.5733132018575366,90.3,2.8497377650692544,1.3412655651688732,0
rbt_1607289,2.1704060829074856,76.65,2.8315800168395113,1.3306268056646886,0
sbt_34000,6.124682481680876,216.3,2.831568415016586,1.3308636588847995,0
sbt_20828,4.595981985570779,163.8,2.8058498080407683,1.3187770268226862,0
rbt_1609690,2.4954559452111424,90.3,2.7635171043312763,1.2984637749507597,0
sbt_34382,3.5140981040825774,128.1,2.7432459828903806,1.2891177545812378,0
rbt_1625170,2.475347133105801,90.3,2.741248209419491,1.2881025343073005,0
rbt_605821,3.499887189817593,128.1,2.7321523730035855,1.2837099037944595,0
sbt_35105,3.492345272548147,128.1,2.7262648497643616,1.2813837750894848,0
smt_37856,5.8720016093188265,216.3,2.7147487791580334,1.4614875120566477,0
smt_15243,4.444388413073847,163.8,2.7133018394834227,1.5637749321739305,0
smt_26472,4.4439840494440555,163.8,2.7130549752405706,1.563777622560443,0
smt_14780,4.443525988787326,163.8,2.712775328929991,1.563771695760998,0
smt_14754,4.443069174578762,163.8,2.7124964435767773,1.5637666211435166,0
smt_14729,4.442614903130783,163.8,2.7122191105804534,1.568040271869962,0
smt_21229,4.442154019629444,163.8,2.7119377409215164,1.568030858623134,0
smt_26474,4.441719964206776,163.8,2.7116727498209863,1.5680185388791437,0
smt_22453,4.441337327931019,163.8,2.711439150141037,1.5680288262980342,0
smt_14544,4.440877962650711,163.8,2.711158707356966,1.5680267016812124,0
smt_14113,4.440419448472578,163.8,2.710878784171293,1.5680334342393183,0
smt_22508,4.4399167270928315,163.8,2.710571872462046,1.568023375834121,0
smt_14452,4.439473796793393,163.8,2.710301463243829,1.5680120932634949,0
smt_30311,4.439102308056022,163.8,2.71007466914287,1.5680292500028707,0
smt_26478,4.4386444344828755,163.8,2.709795137046932,1.5680180652743194,0
rbt_605988,2.4439631632774104,90.3,2.7064929825884945,1.2736183001128536,0
smt_6512,7.685022305160539,286.65,2.680977605149325,1.6144859854850768,0
smt_6425,7.68465307617537,286.65,2.6808487968516905,1.6144243222459664,0
smt_6930,7.684087550330447,286.65,2.6806515089239307,1.6143250824406206,0
rbt_605804,1.6564797371039361,61.95,2.673897880716604,1.2565872309871673,0
sbt_6048,4.331534628068458,163.8,2.6444045348403287,1.2443354096674042,0
smt_856,4.326392980179957,163.8,2.641265555665419,1.5303333710322935,0
smt_15622,4.32589093857541,163.8,2.6409590589593464,1.5302954533373834,0
smt_23196,4.325612051552586,163.8,2.6407887982616516,1.5303001616856624,0
smt_15581,4.325313174282398,163.8,2.6406063335057373,1.5303063084018111,0
smt_15568,4.3249897729010724,163.8,2.6404088967650017,1.5303069739388508,0
rbt_605829,2.3817338464656155,90.3,2.6375790104824093,1.2399287322975352,0
smt_22686,7.546128922450067,286.65,2.632523608041189,1.6549742990740934,0
smt_6239,7.545693163476981,286.65,2.632371590258846,1.6548963739074143,0
smt_23961,7.545267887079111,286.65,2.6322232294013994,1.6548207197469342,0
smt_29407,7.544835347356088,286.65,2.6320723346785586,1.6547432736340184,0
smt_6278,7.544448005219082,286.65,2.6319372074722076,1.6546754365793612,0
smt_6630,7.543996459539738,286.65,2.6317796823791166,1.6545955955685292,0
smt_19070,7.543542840263407,286.65,2.6316214338961825,1.6545155558888576,0
sbt_15045,5.691962573459494,216.3,2.6315129789456746,1.2377061457023746,0
smt_6639,7.543089566710706,286.65,2.631463306021527,1.654435364922903,0
smt_19117,7.542666530601976,286.65,2.6313157267057306,1.6543607024087426,0
smt_21514,7.525460319748022,286.65,2.625313211145307,1.649244395982911,0
smt_5615,7.525021282786242,286.65,2.6251600498120506,1.6491628527619973,0
smt_18742,7.524679416359821,286.65,2.6250407871480275,1.6491022287490649,0
smt_6270,7.524142584578552,286.65,2.6248535093593417,1.6490029089396108,0
smt_5967,7.5237251191340215,286.65,2.6247078734114853,1.648927616776252,0
smt_5772,7.523232738380527,286.65,2.6245361026968523,1.6488380380362677,0
smt_6158,7.522745850365376,286.65,2.624366248165141,1.6487490161276028,0
smt_6263,7.522324255400604,286.65,2.624219171603211,1.6486738815557838,0
smt_6384,7.5218014998901,286.65,2.6240368044270364,1.6485794236623643,0
smt_22684,7.521290097411598,286.65,2.62385839784113,1.6484862828807418,0
smt_22685,7.520872903779047,286.65,2.623712856716919,1.6484116195036123,0
smt_29447,7.52043557397544,286.65,2.6235602909385802,1.6483336636311063,0
smt_19065,7.5199671463793285,286.65,2.623396876462351,1.6482507268763964,0
smt_24385,7.5194379515133525,286.65,2.6232122628687784,1.6481562679509925,0
rbt_1607316,2.3555074733481876,90.3,2.608535407916044,1.9765436517994808,0
rbt_1107342,1.615708481503949,61.95,2.6080847159062936,1.2262305097684731,0
smt_29448,7.470507521248046,286.65,2.606142515697906,1.6365944151811986,0
smt_6824,7.470084190763385,286.65,2.6059948336868604,1.6365133688932085,0
smt_6855,7.469630346129949,286.65,2.605836506586412,1.6364270293095322,0
smt_19062,7.469100442420164,286.65,2.6056516457073657,1.63632487996653,0
smt_7054,7.468679327468147,286.65,2.605504736601482,1.6362446586537318,0
smt_6446,7.468249132236717,286.65,2.6053546597720976,1.6361628959374153,0
smt_39006,7.467808445526336,286.65,2.605200922911682,1.6360788445508092,0
smt_39008,7.4674102988419016,286.65,2.6050620264580155,1.6360000270700599,0
smt_39007,7.4673935192485565,286.65,2.605056172771169,1.6360000996721595,0
smt_6122,7.467011485320218,286.65,2.6049228973731795,1.6359287810501908,0
smt_18741,7.466529463665673,286.65,2.604754740507823,1.635837524496588,0
smt_5938,7.466082964108165,286.65,2.604598975792139,1.6357541612402156,0
smt_5946,7.465567469051529,286.65,2.60441914147969,1.635656971669279,0
smt_37925,5.611933336142855,216.3,2.5945137938709455,1.4027490010298997,0
smt_37924,5.611784736070699,216.3,2.5944450929591762,1.402808261435452,0
smt_37923,5.611466815522847,216.3,2.5942981116610477,1.4028462474529315,0
smt_37864,5.6111535380349,216.3,2.5941532769463245,1.4028447017436119,0
smt_37863,5.611005161087362,216.3,2.5940846791897187,1.4028631341772064,0
smt_37862,5.610856967997791,216.3,2.594016166434485,1.4029054411696391,0
smt_37861,5.6106122486800825,216.3,2.5939030275913466,1.4029490366707653,0
smt_37860,5.610316085903566,216.3,2.5937661053645704,1.4029907332456617,0
smt_37859,5.610003899299404,216.3,2.5936217749881663,1.4030109990132515,0
smt_37858,5.609771369303815,216.3,2.5935142715227992,1.4030633084008282,0
smt_37831,5.609449953990566,216.3,2.5933656745217597,1.4030629797007288,0
smt_37898,5.595454003864786,216.3,2.586895054953669,1.3935998686090219,0
smt_37897,5.595095782051382,216.3,2.586729441540167,1.393616984354691,0
smt_37896,5.59478463752954,216.3,2.586585592940148,1.3936449855464106,0
smt_37895,5.594451002822148,216.3,2.5864313466584132,1.3936693991154743,0
smt_37894,5.594122813682636,216.3,2.5862796179762535,1.3936912119181688,0
smt_37893,5.593812505825834,216.3,2.586136156183927,1.3937184015492392,0
smt_37892,5.593488698959833,216.3,2.5859864535181845,1.3937418484084276,0
smt_37891,5.59317648040906,216.3,2.585842108372196,1.3937711847809877,0
smt_37890,5.592844587047315,216.3,2.5856886671508623,1.39382272537081,0
smt_37889,5.59239631032845,216.3,2.585481419476861,1.3938134176915293,0
smt_37888,5.592171113969009,216.3,2.585377306504396,1.3938303641587286,0
smt_37887,5.591955570281391,216.3,2.5852776561633797,1.3938735901490231,0
smt_37886,5.5916221132301835,216.3,2.585123492015804,1.3938997714841561,0
smt_37885,5.591300932617989,216.3,2.584975003521955,1.3939285345014651,0
smt_37884,5.590976582207797,216.3,2.5848250495643996,1.3939574806591237,0
smt_37883,5.590651255400738,216.3,2.5846746441982145,1.393988758644384,0
smt_37882,5.590316272295111,216.3,2.584519774523861,1.3940168030895925,0
smt_37881,5.589992491573521,216.3,2.5843700839452244,1.394047645331616,0
smt_37880,5.589663998088082,216.3,2.584218214557597,1.3940739644384186,0
smt_37879,5.5893552927550445,216.3,2.5840754936454204,1.3941100116556908,0
smt_37878,5.5890150329078825,216.3,2.5839181844234314,1.3941380708811775,0
smt_37877,5.588695080068867,216.3,2.5837702635547233,1.3941715954223346,0
smt_37876,5.5883635101044264,216.3,2.583616971846707,1.3942043860504407,0
smt_37875,5.588030539686684,216.3,2.5834630326799277,1.3942376740606954,0
smt_37874,5.587696364061082,216.3,2.583308536320426,1.3942690376468985,0
smt_37873,5.58737190406272,216.3,2.583158531697975,1.3942967207767403,0
smt_37945,5.587070800105451,216.3,2.5830193250603104,1.394308047474935,0
smt_37944,5.586856210471908,216.3,2.5829201157983857,1.3943385161878785,0
smt_37943,5.586605014414349,216.3,2.58280398262337,1.3943747612975834,0
smt_37942,5.586309669955457,216.3,2.582667438721894,1.3944053022051675,0
smt_37941,5.586016906643068,216.3,2.582532088138265,1.394435833334527,0
smt_37940,5.585726944263299,216.3,2.5823980324841878,1.3944684077934533,0
smt_37939,5.585430961505542,216.3,2.582261193483838,1.3945020000887542,0
smt_37938,5.585128825968273,216.3,2.5821215099252304,1.3945359815941665,0
smt_37937,5.584823263138469,216.3,2.581980241857822,1.3945686453831116,0
smt_37936,5.584523034946387,216.3,2.5818414401046637,1.3946023090531743,0
smt_37935,5.584222761310146,216.3,2.5817026173417226,1.3946295320259976,0
smt_37934,5.583951232309739,216.3,2.581577083823273,1.3946664802982072,0
smt_37933,5.583654587656424,216.3,2.5814399388148055,1.394701074734672,0
smt_37932,5.583356359306449,216.3,2.5813020616303506,1.3947358143519721,0
smt_23147,4.223029758206539,163.8,2.578162245547337,1.5049985928877438,0
smt_16038,4.222744341597962,163.8,2.577987998533554,1.5050975830838942,0
sbt_22669,5.551414529074927,216.3,2.566534687505745,1.2065650519629054,0
rbt_3405987,1.5897382648380785,61.95,2.5661634622083587,1.2079812282274245,0
rbt_1132012,2.3074381723784083,90.3,2.5553025164766425,1.2009413967694667,0
smt_37986,5.526230870932447,216.3,2.5548917572503225,1.4137490554818986,0
smt_37987,5.525998917428921,216.3,2.554784520309256,1.4137608206441454,0
smt_37993,5.525702640993327,216.3,2.554647545535518,1.4137431825627516,0
smt_37920,5.525554540985826,216.3,2.5545790758140665,1.4137754056943281,0
smt_37919,5.525195134213305,216.3,2.5544129145692582,1.4137794004236575,0
smt_37918,5.5248424355382735,216.3,2.554249854617787,1.4137824124789244,0
smt_37917,5.524505137806358,216.3,2.5540939148434383,1.4137892784698514,0
smt_37916,5.524157710887767,216.3,2.55393329213489,1.4137944877593354,0
smt_37915,5.523815109191437,216.3,2.5537749002272014,1.4137875982958719,0
smt_37914,5.5235606682219345,216.3,2.5536572668617357,1.413804114537626,0
smt_37913,5.52322763231901,216.3,2.553503297419792,1.4138133635207095,0
smt_37912,5.522877276066828,216.3,2.5533413204192454,1.4138190668807757,0
smt_40685,5.522538057612751,216.3,2.5531844926549936,1.4138236525407126,0
smt_37911,5.52221683283341,216.3,2.553035983741752,1.4137851551317369,0
smt_37910,5.5221980076504,216.3,2.553027280467129,1.4138353107663615,0
smt_37909,5.521853372170246,216.3,2.552867948298773,1.4138426370756767,0
smt_37908,5.5215156313137195,216.3,2.5527118036586773,1.413853592348179,0
smt_40683,5.521162579118552,216.3,2.5525485802674766,1.4138590754644753,0
smt_37906,5.520834513966508,216.3,2.5523969089073084,1.4138699728835131,0
smt_37905,5.520494680073731,216.3,2.552239796612913,1.4138760125750485,0
rbt_1607268,1.9562325359992025,76.65,2.552162473580173,1.1993186492447439,0
smt_37904,5.520178401935294,216.3,2.5520935746349025,1.4138855421022216,0
smt_37903,5.5198612695820355,216.3,2.5519469577355687,1.4138830163501879,0
sbt_35588,5.506524010726309,216.3,2.5457808648757787,1.1963937443037438,0
rbt_605823,2.297152643376162,90.3,2.5439121189104785,1.1962283855125462,0
smt_13546,4.1664006834980425,163.8,2.5435901608657154,1.4881280984737373,0
smt_21225,4.1661174985696485,163.8,2.5434172762940466,1.4881634267434627,0
smt_13930,4.1656082653032485,163.8,2.543106389074022,1.488159852106751,0
smt_21226,4.165103020461479,163.8,2.5427979367896696,1.4881379233650718,0
smt_13280,4.16471668034411,163.8,2.542562075912155,1.4881343174465096,0
smt_14437,4.164349058056156,163.8,2.542337642280925,1.4881352307183888,0
smt_13955,4.163978565268653,163.8,2.542111456207969,1.4881372461862703,0
smt_26469,4.16360339345292,163.8,2.541882413585421,1.4881307417875078,0
smt_20808,4.163275653699036,163.8,2.541682328265589,1.488135830521674,0
smt_23095,4.16293260723615,163.8,2.5414728981905674,1.488107970954946,0
smt_20807,4.162759668133311,163.8,2.541367318762705,1.4881446958314861,0
smt_13717,4.162395183067532,163.8,2.5411448004075283,1.4881353794396421,0
smt_37963,5.477924021878034,216.3,2.532558493702281,1.392328123172704,0
smt_37983,5.477481792379012,216.3,2.5323540417841017,1.3923295898942019,0
smt_37984,5.477032490935131,216.3,2.532146320358359,1.392329698526309,0
smt_37985,5.476590650393997,216.3,2.5319420482635215,1.3923303756906604,0
smt_37947,5.476156164688787,216.3,2.5317411764626843,1.392327457078873,0
smt_37948,5.475758870817643,216.3,2.531557499222211,1.3923314565968499,0
sbt_21281,4.123007239302162,163.8,2.517098436692407,1.1826495551284824,0
smt_14797,4.116637199172911,163.8,2.5132095233045852,1.4716580355841433,0
smt_23041,4.116272176552182,163.8,2.5129866767717837,1.4716517664603943,0
smt_14823,4.1159024507751205,163.8,2.5127609589591695,1.4716461054634709,0
smt_13752,4.11552756597066,163.8,2.512532091557179,1.4715816328004017,0
smt_23225,4.098737699859905,163.8,2.50228186804634,1.4650765052468346,0
smt_21220,4.098322733373116,163.8,2.502028530752818,1.4650649936169033,0
smt_14845,4.097889462878536,163.8,2.5017640188513646,1.4650534820699825,0
smt_26425,4.097441173645422,163.8,2.501490338000868,1.4650400034956261,0
smt_20810,4.096995989011841,163.8,2.5012185525102812,1.4650175290631722,0
smt_26429,4.096621302523396,163.8,2.5009898061803395,1.4650079124790751,0
smt_26430,4.096249877090547,163.8,2.5007630507268295,1.4649992563654395,0
smt_21222,4.0796712501629555,163.8,2.490641788866273,1.4589967409380922,0
smt_14301,4.0793811548582894,163.8,2.490464685505671,1.4589959287484724,0
smt_23277,4.07901484568601,163.8,2.4902410535323627,1.4589778639459834,0
smt_26427,4.0786704983506805,163.8,2.4900308292739197,1.4589675878495454,0
smt_20812,4.07830780241617,163.8,2.4898094031844744,1.4589546895577996,0
smt_15154,4.077944532114206,163.8,2.4895876264433485,1.4589392031199377,0
smt_14674,4.077602150954778,163.8,2.4893786025364943,1.4589391904722018,0
rbt_605989,2.2442176323449408,90.3,2.485290844235815,1.168018913083376,0
rbt_1121173,2.240611434753846,90.3,2.481297269937814,1.1670331659164883,0
rbt_605807,2.2348606871368726,90.3,2.474928778667633,1.1642813899127373,0
rbt_606130,1.8821999428855456,76.65,2.4555772248996024,1.1538168018709458,0
sbt_3491,4.016071474593105,163.8,2.4518140870531777,1.1524577645501288,0
rbt_637399,1.5099826395114064,61.95,2.4374215327060638,1.1453584492159854,0
sbt_21191,3.9837962813826016,163.8,2.43211006189414,1.1434140516265068,0
sbt_26310,3.931223598445174,163.8,2.400014406865185,1.1284652741982122,0
rbt_637705,2.154610693037704,90.3,2.386058353308642,1.8073869553482664,0
rbt_1105833,2.147964267545481,90.3,2.3786979707037443,1.1181058079142179,0
smt_29426,5.13437764961567,216.3,2.373729842633227,1.3010645811253552,0
rbt_1607276,2.139018977303187,90.3,2.3687917799592326,1.1130211540057682,0
smt_37960,5.071445366598004,216.3,2.3446349360138714,1.3203606549004594,0
smt_37962,5.071066418911716,216.3,2.344459740597187,1.32036386636855,0
smt_37981,5.054646379533693,216.3,2.3368684140238987,1.298431626827292,0
smt_37951,5.05429096060231,216.3,2.3367040964411974,1.2984342713745012,0
smt_37952,5.053935049052512,216.3,2.3365395511107314,1.2984488877418288,0
smt_37953,5.0534970884762656,216.3,2.336337072804561,1.2984509616459683,0
smt_37954,5.05307535292051,216.3,2.3361420956636665,1.3004847746355594,0
smt_37955,5.052617886110708,216.3,2.335930599219005,1.3004773300285921,0
smt_37956,5.052250204882181,216.3,2.335760612520657,1.3004919106702484,0
smt_37957,5.051815485812945,216.3,2.335559632830765,1.300497935374359,0
smt_37958,5.051383419734063,216.3,2.3353598796736303,1.3005061427968856,0
smt_37959,5.05094329665407,216.3,2.3351564015968886,1.300512710325487,0
rbt_1607319,2.105912435206652,90.3,2.332128942643026,1.656538726034458,0
rbt_622709,2.1033281757405278,90.3,2.3292670827691335,1.0950393263701752,0
rbt_1607328,2.1014042058123983,90.3,2.3271364405452917,1.0942132285368709,0
rbt_607366,2.1002162784326455,90.3,2.3258209063484445,1.0929637227065179,0
sbt_21953,3.747353725692567,163.8,2.287761737297049,1.0765862224274183,0
sbt_21849,3.747353665262709,163.8,2.287761700404584,1.0765862048473271,0
sbt_21968,3.747353592061462,163.8,2.287761655715178,1.076586183599612,0
smt_37979,4.942222484121366,216.3,2.2848925030611955,1.2856642164705663,0
smt_37980,4.941840932809391,216.3,2.2847161039340684,1.2856436275527714,0
rbt_1633892,2.0296868361194975,90.3,2.247715211649499,1.056385837676803,0
sbt_21137,3.68096090362688,163.8,2.247228878893089,1.056830122036899,0
rbt_1134165,2.0251172729945104,90.3,2.242654787369336,1.0552160204963317,0
rbt_1131858,2.023845611818519,90.3,2.2412465247159683,1.0542590530405136,0
smt_6074,6.419265766155783,286.65,2.2394089538307282,1.3358861215412334,0
smt_6082,6.418819297740393,286.65,2.239253199979206,1.335822110157639,0
smt_6649,6.418379365184457,286.65,2.239099726211218,1.3357591795339256,0
smt_29408,6.417949300593636,286.65,2.2389496949567893,1.335698271872567,0
smt_6422,6.417518391643126,286.65,2.2387993691411574,1.3356375455545624,0
smt_22683,6.417085339561028,286.65,2.238648295678015,1.3355766467433028,0
smt_22793,6.400105987940661,286.65,2.2327249216607923,1.3230640676055025,0
smt_22790,6.399653048017275,286.65,2.2325669101752226,1.322994472007802,0
smt_29449,6.399380343908731,286.65,2.2324717753039356,1.3237833247840902,0
smt_6370,6.399215872464986,286.65,2.232414398208612,1.3229280166960147,0
smt_6401,6.39894453668848,286.65,2.2323197406902078,1.3237193682625106,0
smt_29409,6.398776490762707,286.65,2.23226111661005,1.322861992932049,0
smt_21348,6.398506328317953,286.65,2.232166868417217,1.3236690857719742,0
smt_5650,6.398316239361169,286.65,2.2321005544605512,1.3227923491537885,0
smt_6094,6.397861935857062,286.65,2.2319420672796313,1.3227210805749925,0
smt_29477,6.39751313555909,286.65,2.231820385682571,1.3226709922730921,0
smt_29450,6.397086923480445,286.65,2.2316716984058766,1.3226085810594923,0
smt_6231,6.396618409868452,286.65,2.231508253922363,1.3225380840568064,0
smt_6340,6.396179426064692,286.65,2.2313551111336793,1.3224734945990841,0
rbt_1607353,2.0060390305956686,90.3,2.2215271656651923,1.0440733137415374,0
sbt_34390,3.626218307775655,163.8,2.213808490705528,1.67694680214759,0
smt_6581,6.338077142613925,286.65,2.2110856942661523,1.2991302679637506,0
smt_6701,6.337634962233352,286.65,2.2109314363277,1.2990685258460684,0
smt_21959,6.3371494569031,286.65,2.2107620641559746,1.298997459256765,0
smt_19219,6.329171934257794,286.65,2.2079790456158364,1.2889353609468837,0
smt_5952,6.328701813843485,286.65,2.2078150405872963,1.2888594251364351,0
smt_29478,6.328211628858231,286.65,2.207644035882865,1.2887788526403705,0
smt_22841,6.327779785707577,286.65,2.2074933841645135,1.288709996642034,0
smt_6660,6.327313373360122,286.65,2.2073306727228754,1.2886346706370964,0
smt_22845,6.291537366956377,286.65,2.194849944865298,1.2675985347230088,0
smt_18913,6.290991565270716,286.65,2.1946595378582647,1.2675087967185685,0
smt_5786,6.290462661719298,286.65,2.194475025891958,1.267421024557734,0
smt_29479,6.290007404388603,286.65,2.1943162059614876,1.2673472932458665,0
smt_19224,6.289539604016411,286.65,2.1941530102970215,1.2672720435743219,0
smt_25183,4.734148255928835,216.3,2.1886954488806447,1.2034269173741206,0
smt_25117,4.733502656177577,216.3,2.1883969746544505,1.203129801268162,0
smt_25116,4.732839108553753,216.3,2.188090202752544,1.2028247629680642,0
smt_25115,4.732320017319829,216.3,2.1878502160517006,1.2025863720918475,0
smt_25114,4.731864488371297,216.3,2.1876396155207103,1.2023773458032911,0
smt_25113,4.73133294707952,216.3,2.1873938728985296,1.2021336462282155,0
smt_25112,4.730771540143289,216.3,2.187134322766199,1.2018764956217163,0
smt_25111,4.730403773507838,216.3,2.1869642965824494,1.201708176445297,0
smt_25110,4.730138159654658,216.3,2.186841497759897,1.2015866770091983,0
smt_25109,4.729437670842506,216.3,2.186517647176378,1.2012665221312542,0
smt_25108,4.7289044274853085,216.3,2.186271117653864,1.2010230679604872,0
smt_25107,4.728186176023917,216.3,2.1859390550272386,1.2006955071615835,0
smt_25106,4.727559163727378,216.3,2.1856491741689217,1.2004098948590056,0
smt_25105,4.726917845444384,216.3,2.1853526793547773,1.2001180938117575,0
smt_29427,4.726276310676848,216.3,2.185056084455316,1.1998265272174735,0
smt_6407,4.7250067612838995,216.3,2.1844691452999996,1.1992505252786494,0
smt_22794,4.724375014897644,216.3,2.184177075773298,1.1989643891886883,0
smt_6477,4.72367790848866,216.3,2.183854788945289,1.1986490302860666,0
smt_6641,4.722772435220595,216.3,2.1834361697737377,1.1982400086334801,0
smt_6157,4.722136765166452,216.3,2.1831422862535605,1.1979532690310852,0
smt_6694,4.721418949900712,216.3,2.1828104252892793,1.1976298797971585,0
sbt_20633,3.4718038104436375,163.8,2.119538345814186,1.3988125923841215,0
smt_37973,4.581802633915147,216.3,2.1182628913153705,1.2198356809090765,0
smt_37991,4.5816388307256615,216.3,2.1181871616854653,1.2198472684849375,0
smt_37974,4.581407987398589,216.3,2.1180804380021216,1.2198737506660873,0
smt_37990,4.581014545659119,216.3,2.1178985416824405,1.2198752388798435,0
smt_37975,4.580650795420301,216.3,2.1177303723625984,1.2198854696408163,0
smt_37976,4.5802572944028475,216.3,2.11754844863747,1.2198915814819766,0
smt_37977,4.579869368073099,216.3,2.117369102206703,1.219896167316748,0
smt_37978,4.579500315356332,216.3,2.1171984814407447,1.2199098190217226,0
smt_37970,4.539710365657457,216.3,2.09880275804783,1.2102276310647082,0
smt_37971,4.539194937614434,216.3,2.0985644649165205,1.2101973491044273,0
smt_37972,4.538928588419099,216.3,2.0984413261299575,1.2102154671498635,0
sbt_4619,4.538836829193312,216.3,2.0983989039266353,0.9863030016510334,0
smt_37989,4.538548529245082,216.3,2.098265616849321,1.2102978568830993,0
smt_37964,4.438267383413723,216.3,2.051903552202368,1.1874082840213351,0
smt_37965,4.436924115558743,216.3,2.051282531464976,1.187419259096843,0
smt_37994,4.436748856670983,216.3,2.0512015056268993,1.187397069337809,0
smt_37995,4.436744719805087,216.3,2.051199593067539,1.1873974133079737,0
smt_37996,4.436739725101666,216.3,2.0511972839120043,1.18743992806033,0
smt_37966,4.436436180473407,216.3,2.051056948901252,1.1874540035823513,0
smt_37967,4.436065201441774,216.3,2.050885437559766,1.187461301689393,0
smt_37968,4.43568493649791,216.3,2.0507096331474384,1.1874669527724115,0
smt_37969,4.435311841254171,216.3,2.0505371434369724,1.1874613606755604,0
rbt_606110,1.2614505857590192,61.95,2.036239847875737,0.9567024072382831,0
rbt_1607284,1.8320111747739964,90.3,2.0288052876788445,0.95373335735926,0
rbt_1607302,1.2415967830791725,61.95,2.004191740240795,0.9416293278430005,0
rbt_607382,1.7910437834356325,90.3,1.9834371909586188,0.9324463396255976,0
rbt_1607273,1.5190587368681243,76.65,1.9818117897822884,0.9312020754588795,0
sbt_26614,3.2110366552843046,162.75,1.9729871921869768,1.4942614298670698,0
sbt_26512,3.211035060262444,162.75,1.9729862121428225,1.4942604387946838,0
sbt_16246,3.2110344791768353,162.75,1.972985855100974,1.494260078273743,0
sbt_5828,3.211031730139996,163.8,1.960336831587299,1.4846797965969742,0
sbt_3790,3.1880566652243867,163.8,1.9463105404300283,0.9143695952380813,0
rbt_1137150,1.1986675679253984,61.95,1.9348951863202557,0.9095780696011744,0
rbt_3405843,1.742355279847706,90.3,1.9295185823341152,0.9072846927153487,0
rbt_1607288,1.464396310682699,76.65,1.9104974699056736,0.8979345779117143,0
rbt_605817,1.4568169013548629,76.65,1.900609134187688,0.8933393104946132,0
smt_13591,3.0964672048264115,163.8,1.890395118941643,0.9378009014274795,0
sbt_30492,2.351343781234427,124.95,1.8818277560899777,0.8843495064057691,0
rbt_607387,1.6905705378600877,90.3,1.8721711382725226,0.8797930051261025,0
sbt_21147,2.3953164133815994,128.1,1.8698801041230284,0.8786588145875452,0
sbt_17923,2.3953109161795303,128.1,1.8698758127865187,0.8786544860000909,0
rbt_626695,1.6835226070657112,90.3,1.8643661207815183,1.4122489868836439,0
rbt_623432,1.6833587315478902,90.3,1.864184641802758,0.8764877350874869,0
sbt_3473,3.032860091506041,163.8,1.8515629374273752,0.8703274395251629,0
sbt_26790,3.9948643537747612,216.3,1.8469090863498665,0.8683603197206887,0
smt_18691,5.260131261609006,286.65,1.8350361980146543,0.9651380081786299,0
smt_18692,5.259438625059875,286.65,1.8347945665654546,0.9649684299747451,0
smt_22142,5.258821341822893,286.65,1.8345792226837236,0.9648177939369301,0
smt_29410,5.2582612555822275,286.65,1.834383832402661,0.9646815194756906,0
smt_4821,5.257727011549022,286.65,1.8341974573692736,0.9645518917575312,0
smt_18693,5.257076539934637,286.65,1.8339705354734477,0.9643945376490649,0
smt_5832,5.25647725054178,286.65,1.833761468879044,0.9642500278502711,0
smt_18694,5.255849854986693,286.65,1.8335425972393837,0.9640992180274073,0
smt_5643,5.255297031085195,286.65,1.8333497404797474,0.9639667392675896,0
smt_29483,5.254747701787651,286.65,1.8331581028388808,0.9638354758416591,0
smt_6014,5.254203738298137,286.65,1.8329683371003442,0.9637058669186173,0
smt_18695,5.253576359481457,286.65,1.8327494713000028,0.9635568442951318,0
smt_29482,5.253018673732312,286.65,1.8325549184483907,0.9634247923509389,0
smt_6195,5.252434284844641,286.65,1.8323510500068523,0.9632868392471865,0
smt_6105,5.251847930042831,286.65,1.8321464957414375,0.963148857253353,0
smt_19334,5.219548107279079,286.65,1.8208784605892476,0.9453088489573337,0
smt_19331,5.218930208320657,286.65,1.82066290190848,0.9451231936399451,0
smt_22269,5.218323444409009,286.65,1.8204512277721994,0.9449412419583517,0
sbt_34896,3.9054817469934897,216.3,1.8055856435476143,0.8487064348664801,0
sbt_34381,2.9168159967297873,163.8,1.7807179467214818,0.8370562511174754,0
rbt_605808,1.5784073058092374,90.3,1.7479593641298312,0.8212673316877198,0
rbt_1607326,1.5758308061166735,90.3,1.745106097582141,0.8204518163866538,0
smt_29480,4.982936813507295,286.65,1.7383348381326689,0.9612684501136899,0
smt_19271,4.981793629465762,286.65,1.7379360298153714,0.9610426042181714,0
smt_5537,4.981339867366496,286.65,1.7377777315075864,0.9609534781289896,0
smt_40375,2.8461132493003385,163.8,1.7375538762517326,0.8646656336235489,0
smt_40374,2.8455605873338206,163.8,1.7372164757837734,0.8643390880162412,0
smt_40358,2.8450108602088617,163.8,1.7368808670383769,0.8640150993795368,0
smt_40357,2.8444321527691896,163.8,1.736527565793156,0.8636749231714441,0
smt_40356,2.8439448079725764,163.8,1.7362300414972993,0.863389166116022,0
smt_40355,2.843388310682077,163.8,1.7358902995617074,0.8630636647326901,0
smt_40354,2.8428229162757894,163.8,1.7355451259314951,0.8627338420937268,0
smt_40353,2.842251023104912,163.8,1.7351959848015335,0.8624011394564303,0
smt_40352,2.8417736534327416,163.8,1.7349045503252387,0.8621241323688883,0
smt_40351,2.8413213140433333,163.8,1.7346283968518517,0.8618622458193146,0
smt_40350,2.840768593842433,163.8,1.734290960831766,0.8615430344220655,0
smt_40349,2.8402482047519526,163.8,1.7339732629743299,0.8612432956073058,0
smt_40373,2.8397152647498327,163.8,1.7336479027776754,0.8609371374671838,0
smt_40348,2.839691679498803,163.8,1.7336335039675232,0.8609236072394784,0
smt_40366,2.8392897602211242,163.8,1.7333881320031281,0.8560263215693164,0
smt_40380,2.839246196676473,163.8,1.733361536432523,0.855999525253664,0
smt_40347,2.8391261095348392,163.8,1.7332882231592424,0.8605996440875844,0
smt_40367,2.8388609257895485,163.8,1.7331263283208478,0.8557627382570971,0
smt_40346,2.83856387624973,163.8,1.7329449793954392,0.8602785180650311,0
smt_40368,2.8383621903720564,163.8,1.7328218500439905,0.8554567767288326,0
smt_40369,2.838019705962946,163.8,1.7326127631031414,0.8552470392858252,0
smt_40345,2.8379931884055836,163.8,1.7325965741181826,0.8599535133377499,0
smt_40344,2.8374312881298986,163.8,1.7322535336568368,0.8596344543085835,0
smt_19274,4.962952296792629,286.65,1.7313630897584615,0.9494989759627434,0
smt_4942,4.962418522865803,286.65,1.731176878725206,0.9493920261263682,0
smt_40362,2.8354065363349066,163.8,1.731017421449882,0.8536567271159926,0
smt_18740,4.96189776650887,286.65,1.730995208968732,0.9492880698249784,0
smt_5191,4.961379479387405,286.65,1.73081440062355,0.9491849854680722,0
smt_40378,2.835073278535171,163.8,1.730813967359689,0.8534552006632051,0
smt_5198,4.960866151990633,286.65,1.7306353225154831,0.9490832613607404,0
smt_40361,2.8345327172286074,163.8,1.730483954352019,0.8531289423367859,0
smt_5549,4.96030047731325,286.65,1.7304379826664051,0.9489715976022969,0
smt_19273,4.959721999866699,286.65,1.7302361764753877,0.9488579103557467,0
smt_40360,2.8339671313136514,163.8,1.7301386638056477,0.8527884166862427,0
smt_5414,4.959236454611609,286.65,1.7300667903755829,0.9487628677873313,0
smt_5522,4.958696649919238,286.65,1.729878475464587,0.9486575981589255,0
smt_40359,2.8334330190559083,163.8,1.7298125879462198,0.8524676308679399,0
smt_40377,2.8327725836019213,163.8,1.7294093916983646,0.8520720445615998,0
smt_40376,2.8322180541680013,163.8,1.7290708511404156,0.8517408123936407,0
smt_40861,4.93544806676837,286.65,1.721768033060656,0.9340368137428149,0
smt_40860,4.935099001747334,286.65,1.721646259112972,0.9339664440313985,0
smt_40859,4.934732084817158,286.65,1.7215182573930434,0.9338926620309956,0
smt_40858,4.9343601072034975,286.65,1.7213884902157677,0.9338180579000355,0
...